Version 4
SHEET 1 2644 680
WIRE -624 -432 -768 -432
WIRE -528 -432 -624 -432
WIRE -432 -432 -528 -432
WIRE -624 -400 -624 -432
WIRE 48 -400 32 -400
WIRE 176 -400 128 -400
WIRE -528 -384 -528 -432
WIRE 1280 -368 1280 -400
WIRE -768 -352 -768 -432
WIRE 1152 -304 1136 -304
WIRE -624 -288 -624 -320
WIRE -528 -288 -528 -320
WIRE -528 -288 -624 -288
WIRE -432 -288 -528 -288
WIRE -64 -288 -112 -288
WIRE 32 -288 32 -400
WIRE 32 -288 16 -288
WIRE 64 -288 32 -288
WIRE -624 -272 -624 -288
WIRE 176 -272 176 -400
WIRE 176 -272 128 -272
WIRE 208 -272 176 -272
WIRE 576 -272 208 -272
WIRE 704 -272 656 -272
WIRE 832 -272 704 -272
WIRE -528 -256 -528 -288
WIRE 64 -256 32 -256
WIRE 704 -256 704 -272
WIRE 1152 -240 1136 -240
WIRE 32 -224 32 -256
WIRE 32 -224 0 -224
WIRE 1488 -208 1408 -208
WIRE 368 -192 352 -192
WIRE 496 -192 448 -192
WIRE 704 -176 704 -192
WIRE 1152 -176 1136 -176
WIRE -768 -160 -768 -272
WIRE -624 -160 -624 -192
WIRE -624 -160 -768 -160
WIRE -528 -160 -528 -192
WIRE -528 -160 -624 -160
WIRE -464 -160 -528 -160
WIRE -464 -144 -464 -160
WIRE 1152 -112 1136 -112
WIRE 208 -80 208 -272
WIRE 256 -80 208 -80
WIRE 352 -80 352 -192
WIRE 352 -80 336 -80
WIRE 384 -80 352 -80
WIRE 496 -64 496 -192
WIRE 496 -64 448 -64
WIRE 576 -64 496 -64
WIRE 704 -64 656 -64
WIRE 832 -64 704 -64
WIRE -720 -48 -784 -48
WIRE 384 -48 352 -48
WIRE 704 -48 704 -64
WIRE 1152 -48 1136 -48
WIRE 1424 -48 1408 -48
WIRE -784 -16 -784 -48
WIRE 32 -16 16 -16
WIRE 160 -16 112 -16
WIRE 352 -16 352 -48
WIRE 352 -16 320 -16
WIRE 1152 16 1136 16
WIRE 704 32 704 16
WIRE -80 96 -128 96
WIRE 16 96 16 -16
WIRE 16 96 0 96
WIRE 48 96 16 96
WIRE -720 112 -784 112
WIRE 160 112 160 -16
WIRE 160 112 112 112
WIRE 192 112 160 112
WIRE 576 112 192 112
WIRE 704 112 656 112
WIRE 832 112 704 112
WIRE 48 128 16 128
WIRE 704 128 704 112
WIRE -784 144 -784 112
WIRE 16 160 16 128
WIRE 16 160 -16 160
WIRE 1216 176 1216 128
WIRE 1280 176 1216 176
WIRE 1344 176 1344 128
WIRE 1344 176 1280 176
WIRE 352 192 336 192
WIRE 480 192 432 192
WIRE 1280 192 1280 176
WIRE 704 208 704 192
WIRE 192 304 192 112
WIRE 240 304 192 304
WIRE 336 304 336 192
WIRE 336 304 320 304
WIRE 368 304 336 304
WIRE 480 320 480 192
WIRE 480 320 432 320
WIRE 576 320 480 320
WIRE 704 320 656 320
WIRE 832 320 704 320
WIRE 368 336 336 336
WIRE 704 336 704 320
WIRE 336 368 336 336
WIRE 336 368 304 368
WIRE -544 400 -576 400
WIRE -416 400 -464 400
WIRE -320 400 -352 400
WIRE -576 416 -576 400
WIRE 704 416 704 400
WIRE -544 528 -576 528
WIRE -416 528 -464 528
WIRE -320 528 -352 528
WIRE -576 544 -576 528
FLAG 96 -304 VCC
FLAG 832 -272 I_000
FLAG 96 -240 0
FLAG -432 -432 VCC
FLAG -464 -144 0
FLAG -576 416 0
FLAG -432 -288 VG
FLAG 0 -224 VG
FLAG 1280 192 0
FLAG 1280 -400 VCC
FLAG 1424 -48 VCC
FLAG -784 64 0
FLAG -720 -48 LO
FLAG -720 112 LO_90
FLAG -784 224 0
FLAG -320 400 I
FLAG -112 -288 I
FLAG -576 544 0
FLAG -320 528 Q
FLAG 416 -96 VCC
FLAG 832 -64 I_180
FLAG 416 -32 0
FLAG 320 -16 VG
FLAG 80 80 VCC
FLAG 832 112 Q_090
FLAG 80 144 0
FLAG -16 160 VG
FLAG -128 96 Q
FLAG 400 288 VCC
FLAG 832 320 Q_270
FLAG 400 352 0
FLAG 304 368 VG
FLAG 1136 -304 I_000
FLAG 1136 -112 I_180
FLAG 1136 -240 Q_090
FLAG 1136 -176 Q_270
FLAG 1136 -48 LO
FLAG 1136 16 LO_90
FLAG 704 -176 0
FLAG 704 32 0
FLAG 704 208 0
FLAG 704 416 0
FLAG 1488 -208 rf_out
SYMBOL voltage -768 -368 R0
WINDOW 123 0 0 Left 0
WINDOW 39 0 0 Left 0
SYMATTR InstName V1
SYMATTR Value {VCC}
SYMBOL voltage -448 400 R90
WINDOW 3 -48 40 VRight 2
WINDOW 123 0 0 Left 0
WINDOW 39 0 0 Left 0
WINDOW 0 39 9 VRight 2
SYMATTR Value SINE(0 2 {F})
SYMATTR InstName V3
SYMBOL res 144 -416 R90
WINDOW 0 0 56 VBottom 2
WINDOW 3 32 56 VTop 2
SYMATTR InstName R1
SYMATTR Value 10k
SYMBOL res 32 -304 R90
WINDOW 0 0 56 VBottom 2
WINDOW 3 32 56 VTop 2
SYMATTR InstName R2
SYMATTR Value 10k
SYMBOL OpAmps\\AD8032 96 -336 R0
SYMATTR InstName U2
SYMBOL cap -352 384 R90
WINDOW 0 0 32 VBottom 2
WINDOW 3 32 32 VTop 2
SYMATTR InstName C1
SYMATTR Value 100nF
SYMBOL res -640 -416 R0
SYMATTR InstName R3
SYMATTR Value 10k
SYMBOL res -640 -288 R0
SYMATTR InstName R4
SYMATTR Value 10k
SYMBOL cap -544 -384 R0
SYMATTR InstName C2
SYMATTR Value 10µF
SYMBOL cap -544 -256 R0
SYMATTR InstName C3
SYMATTR Value 10µF
SYMBOL Switches\\ADG5204 1280 -48 R0
SYMATTR InstName U1
SYMBOL voltage -784 -32 R0
WINDOW 123 0 0 Left 0
WINDOW 39 0 0 Left 0
SYMATTR InstName V2
SYMATTR Value PULSE(0 {VCC} 0 1n 1n {0.5/F_LO} {1/F_LO})
SYMBOL voltage -784 128 R0
WINDOW 123 0 0 Left 0
WINDOW 39 0 0 Left 0
SYMATTR InstName V4
SYMATTR Value PULSE(0 {VCC} {0.25/F_LO} 1n 1n {0.5/F_LO} {1/F_LO})
SYMBOL voltage -448 528 R90
WINDOW 3 -48 40 VRight 2
WINDOW 123 0 0 Left 0
WINDOW 39 0 0 Left 0
WINDOW 0 39 9 VRight 2
SYMATTR Value SINE(0 2 {F} {0.25/F})
SYMATTR InstName V5
SYMBOL cap -352 512 R90
WINDOW 0 0 32 VBottom 2
WINDOW 3 32 32 VTop 2
SYMATTR InstName C4
SYMATTR Value 100nF
SYMBOL res 464 -208 R90
WINDOW 0 0 56 VBottom 2
WINDOW 3 32 56 VTop 2
SYMATTR InstName R5
SYMATTR Value 10k
SYMBOL res 352 -96 R90
WINDOW 0 0 56 VBottom 2
WINDOW 3 32 56 VTop 2
SYMATTR InstName R6
SYMATTR Value 10k
SYMBOL OpAmps\\AD8032 416 -128 R0
SYMATTR InstName U3
SYMBOL res 128 -32 R90
WINDOW 0 0 56 VBottom 2
WINDOW 3 32 56 VTop 2
SYMATTR InstName R7
SYMATTR Value 10k
SYMBOL res 16 80 R90
WINDOW 0 0 56 VBottom 2
WINDOW 3 32 56 VTop 2
SYMATTR InstName R8
SYMATTR Value 10k
SYMBOL OpAmps\\AD8032 80 48 R0
SYMATTR InstName U4
SYMBOL res 448 176 R90
WINDOW 0 0 56 VBottom 2
WINDOW 3 32 56 VTop 2
SYMATTR InstName R9
SYMATTR Value 10k
SYMBOL res 336 288 R90
WINDOW 0 0 56 VBottom 2
WINDOW 3 32 56 VTop 2
SYMATTR InstName R10
SYMATTR Value 10k
SYMBOL OpAmps\\AD8032 400 256 R0
SYMATTR InstName U5
SYMBOL res 672 -288 R90
WINDOW 0 0 56 VBottom 2
WINDOW 3 32 56 VTop 2
SYMATTR InstName R11
SYMATTR Value {R}
SYMBOL cap 688 -256 R0
SYMATTR InstName C6
SYMATTR Value {C}
SYMBOL res 672 -80 R90
WINDOW 0 0 56 VBottom 2
WINDOW 3 32 56 VTop 2
SYMATTR InstName R12
SYMATTR Value {R}
SYMBOL cap 688 -48 R0
SYMATTR InstName C7
SYMATTR Value {C}
SYMBOL res 672 96 R90
WINDOW 0 0 56 VBottom 2
WINDOW 3 32 56 VTop 2
SYMATTR InstName R13
SYMATTR Value {R}
SYMBOL cap 688 128 R0
SYMATTR InstName C8
SYMATTR Value {C}
SYMBOL res 672 304 R90
WINDOW 0 0 56 VBottom 2
WINDOW 3 32 56 VTop 2
SYMATTR InstName R14
SYMATTR Value {R}
SYMBOL cap 688 336 R0
SYMATTR InstName C9
SYMATTR Value {C}
TEXT 0 520 Left 2 !.tran 0.02 startup
TEXT -768 -472 Left 2 ;Power and virtual ground
TEXT -8 472 Left 2 !.param F_LO=1000000 VCC=9 F=1000 C=10nF R=220
TEXT 880 -312 Left 2 ;yellow
TEXT 880 -104 Left 2 ;green
TEXT 888 80 Left 2 ;blue
TEXT 896 288 Left 2 ;white
TEXT -784 -96 Left 2 ;Local oscillator and 90 degree shift of it, square waves
TEXT -656 304 Left 2 ;I and Q
TEXT 296 -456 Left 3 ;Breadboard circuit uses:\nMCP6004 quad op amp\n1/2 SN74LV4052A mux\nVCC = 5V
TEXT 880 424 Left 3 ;On breadboard VCC, LO, LO_90, and\nI and Q generated by ADALM2000
TEXT -192 -536 Left 4 ;Quadrature Upconverter Based On Dan Tayloe Paper and NA5Y
